
---------- Begin Simulation Statistics ----------
final_tick                                  451396000                       # Number of ticks from beginning of simulation (restored from checkpoints and never reset)
host_inst_rate                                 161201                       # Simulator instruction rate (inst/s)
host_mem_usage                                 870940                       # Number of bytes of host memory used
host_op_rate                                   161200                       # Simulator op (including micro ops) rate (op/s)
host_seconds                                     1.24                       # Real time elapsed on the host
host_tick_rate                              362676717                       # Simulator tick rate (ticks/s)
sim_freq                                 1000000000000                       # Frequency of simulated ticks
sim_insts                                      200611                       # Number of instructions simulated
sim_ops                                        200630                       # Number of ops (including micro ops) simulated
sim_seconds                                  0.000451                       # Number of seconds simulated
sim_ticks                                   451396000                       # Number of ticks simulated
system.cpu0.branchPred.BTBCorrect                   0                       # Number of correct BTB predictions (this stat may not work properly.
system.cpu0.branchPred.BTBHitPct            94.444893                       # BTB Hit Percentage
system.cpu0.branchPred.BTBHits                  23411                       # Number of BTB hits
system.cpu0.branchPred.BTBLookups               24788                       # Number of BTB lookups
system.cpu0.branchPred.RASInCorrect                 0                       # Number of incorrect RAS predictions.
system.cpu0.branchPred.condIncorrect             1605                       # Number of conditional branches incorrect
system.cpu0.branchPred.condPredicted            26551                       # Number of conditional branches predicted
system.cpu0.branchPred.indirectHits               930                       # Number of indirect target hits.
system.cpu0.branchPred.indirectLookups           1658                       # Number of indirect predictor lookups.
system.cpu0.branchPred.indirectMisses             728                       # Number of indirect misses.
system.cpu0.branchPred.lookups                  30426                       # Number of BP lookups
system.cpu0.branchPred.usedRAS                      0                       # Number of times the RAS was used to get a target.
system.cpu0.branchPredindirectMispredicted          530                       # Number of mispredicted indirect branches.
system.cpu0.committedInsts                     200611                       # Number of instructions committed
system.cpu0.committedOps                       200630                       # Number of ops (including micro ops) committed
system.cpu0.cpi                              4.500212                       # CPI: cycles per instruction
system.cpu0.discardedOps                         2851                       # Number of ops (including micro ops) which were discarded before commit
system.cpu0.dtb.accesses                            0                       # DTB accesses
system.cpu0.dtb.hits                                0                       # DTB hits
system.cpu0.dtb.misses                              0                       # DTB misses
system.cpu0.dtb.read_accesses                       0                       # DTB read accesses
system.cpu0.dtb.read_hits                           0                       # DTB read hits
system.cpu0.dtb.read_misses                         0                       # DTB read misses
system.cpu0.dtb.write_accesses                      0                       # DTB write accesses
system.cpu0.dtb.write_hits                          0                       # DTB write hits
system.cpu0.dtb.write_misses                        0                       # DTB write misses
system.cpu0.fetch2.amo_instructions                 0                       # Number of memory atomic instructions successfully decoded
system.cpu0.fetch2.fp_instructions              16513                       # Number of floating point instructions successfully decoded
system.cpu0.fetch2.int_instructions            105476                       # Number of integer instructions successfully decoded
system.cpu0.fetch2.load_instructions            29776                       # Number of memory load instructions successfully decoded
system.cpu0.fetch2.store_instructions           58425                       # Number of memory store instructions successfully decoded
system.cpu0.fetch2.vec_instructions                 0                       # Number of SIMD instructions successfully decoded
system.cpu0.idleCycles                         546615                       # Total number of cycles that the object has spent stopped
system.cpu0.ipc                              0.222212                       # IPC: instructions per cycle
system.cpu0.itb.accesses                            0                       # DTB accesses
system.cpu0.itb.hits                                0                       # DTB hits
system.cpu0.itb.misses                              0                       # DTB misses
system.cpu0.itb.read_accesses                       0                       # DTB read accesses
system.cpu0.itb.read_hits                           0                       # DTB read hits
system.cpu0.itb.read_misses                         0                       # DTB read misses
system.cpu0.itb.write_accesses                      0                       # DTB write accesses
system.cpu0.itb.write_hits                          0                       # DTB write hits
system.cpu0.itb.write_misses                        0                       # DTB write misses
system.cpu0.numCycles                          902792                       # number of cpu cycles simulated
system.cpu0.numFetchSuspends                        0                       # Number of times Execute suspended instruction fetching
system.cpu0.numWorkItemsCompleted                   0                       # number of work items this cpu completed
system.cpu0.numWorkItemsStarted                     0                       # number of work items this cpu started
system.cpu0.op_class_0::No_OpClass                 45      0.02%      0.02% # Class of committed instruction
system.cpu0.op_class_0::IntAlu                  99490     49.59%     49.61% # Class of committed instruction
system.cpu0.op_class_0::IntMult                     3      0.00%     49.61% # Class of committed instruction
system.cpu0.op_class_0::IntDiv                      3      0.00%     49.61% # Class of committed instruction
system.cpu0.op_class_0::FloatAdd                    0      0.00%     49.61% # Class of committed instruction
system.cpu0.op_class_0::FloatCmp                    0      0.00%     49.61% # Class of committed instruction
system.cpu0.op_class_0::FloatCvt                16384      8.17%     57.78% # Class of committed instruction
system.cpu0.op_class_0::FloatMult                   0      0.00%     57.78% # Class of committed instruction
system.cpu0.op_class_0::FloatMultAcc                0      0.00%     57.78% # Class of committed instruction
system.cpu0.op_class_0::FloatDiv                    0      0.00%     57.78% # Class of committed instruction
system.cpu0.op_class_0::FloatMisc                   0      0.00%     57.78% # Class of committed instruction
system.cpu0.op_class_0::FloatSqrt                   0      0.00%     57.78% # Class of committed instruction
system.cpu0.op_class_0::SimdAdd                     0      0.00%     57.78% # Class of committed instruction
system.cpu0.op_class_0::SimdAddAcc                  0      0.00%     57.78% # Class of committed instruction
system.cpu0.op_class_0::SimdAlu                     0      0.00%     57.78% # Class of committed instruction
system.cpu0.op_class_0::SimdCmp                     0      0.00%     57.78% # Class of committed instruction
system.cpu0.op_class_0::SimdCvt                     0      0.00%     57.78% # Class of committed instruction
system.cpu0.op_class_0::SimdMisc                    0      0.00%     57.78% # Class of committed instruction
system.cpu0.op_class_0::SimdMult                    0      0.00%     57.78% # Class of committed instruction
system.cpu0.op_class_0::SimdMultAcc                 0      0.00%     57.78% # Class of committed instruction
system.cpu0.op_class_0::SimdShift                   0      0.00%     57.78% # Class of committed instruction
system.cpu0.op_class_0::SimdShiftAcc                0      0.00%     57.78% # Class of committed instruction
system.cpu0.op_class_0::SimdDiv                     0      0.00%     57.78% # Class of committed instruction
system.cpu0.op_class_0::SimdSqrt                    0      0.00%     57.78% # Class of committed instruction
system.cpu0.op_class_0::SimdFloatAdd                0      0.00%     57.78% # Class of committed instruction
system.cpu0.op_class_0::SimdFloatAlu                0      0.00%     57.78% # Class of committed instruction
system.cpu0.op_class_0::SimdFloatCmp                0      0.00%     57.78% # Class of committed instruction
system.cpu0.op_class_0::SimdFloatCvt                0      0.00%     57.78% # Class of committed instruction
system.cpu0.op_class_0::SimdFloatDiv                0      0.00%     57.78% # Class of committed instruction
system.cpu0.op_class_0::SimdFloatMisc               0      0.00%     57.78% # Class of committed instruction
system.cpu0.op_class_0::SimdFloatMult               0      0.00%     57.78% # Class of committed instruction
system.cpu0.op_class_0::SimdFloatMultAcc            0      0.00%     57.78% # Class of committed instruction
system.cpu0.op_class_0::SimdFloatSqrt               0      0.00%     57.78% # Class of committed instruction
system.cpu0.op_class_0::SimdReduceAdd               0      0.00%     57.78% # Class of committed instruction
system.cpu0.op_class_0::SimdReduceAlu               0      0.00%     57.78% # Class of committed instruction
system.cpu0.op_class_0::SimdReduceCmp               0      0.00%     57.78% # Class of committed instruction
system.cpu0.op_class_0::SimdFloatReduceAdd            0      0.00%     57.78% # Class of committed instruction
system.cpu0.op_class_0::SimdFloatReduceCmp            0      0.00%     57.78% # Class of committed instruction
system.cpu0.op_class_0::SimdAes                     0      0.00%     57.78% # Class of committed instruction
system.cpu0.op_class_0::SimdAesMix                  0      0.00%     57.78% # Class of committed instruction
system.cpu0.op_class_0::SimdSha1Hash                0      0.00%     57.78% # Class of committed instruction
system.cpu0.op_class_0::SimdSha1Hash2               0      0.00%     57.78% # Class of committed instruction
system.cpu0.op_class_0::SimdSha256Hash              0      0.00%     57.78% # Class of committed instruction
system.cpu0.op_class_0::SimdSha256Hash2             0      0.00%     57.78% # Class of committed instruction
system.cpu0.op_class_0::SimdShaSigma2               0      0.00%     57.78% # Class of committed instruction
system.cpu0.op_class_0::SimdShaSigma3               0      0.00%     57.78% # Class of committed instruction
system.cpu0.op_class_0::SimdPredAlu                 0      0.00%     57.78% # Class of committed instruction
system.cpu0.op_class_0::MemRead                 27724     13.82%     71.60% # Class of committed instruction
system.cpu0.op_class_0::MemWrite                40597     20.23%     91.83% # Class of committed instruction
system.cpu0.op_class_0::FloatMemRead                0      0.00%     91.83% # Class of committed instruction
system.cpu0.op_class_0::FloatMemWrite           16384      8.17%    100.00% # Class of committed instruction
system.cpu0.op_class_0::IprAccess                   0      0.00%    100.00% # Class of committed instruction
system.cpu0.op_class_0::InstPrefetch                0      0.00%    100.00% # Class of committed instruction
system.cpu0.op_class_0::total                  200630                       # Class of committed instruction
system.cpu0.tickCycles                         356177                       # Number of cycles that the object actually ticked
system.cpu0.workload.numSyscalls                    7                       # Number of system calls
system.cpu1.branchPred.BTBCorrect                   0                       # Number of correct BTB predictions (this stat may not work properly.
system.cpu1.branchPred.BTBHitPct                  nan                       # BTB Hit Percentage
system.cpu1.branchPred.BTBHits                      0                       # Number of BTB hits
system.cpu1.branchPred.BTBLookups                   0                       # Number of BTB lookups
system.cpu1.branchPred.RASInCorrect                 0                       # Number of incorrect RAS predictions.
system.cpu1.branchPred.condIncorrect                0                       # Number of conditional branches incorrect
system.cpu1.branchPred.condPredicted                0                       # Number of conditional branches predicted
system.cpu1.branchPred.indirectHits                 0                       # Number of indirect target hits.
system.cpu1.branchPred.indirectLookups              0                       # Number of indirect predictor lookups.
system.cpu1.branchPred.indirectMisses               0                       # Number of indirect misses.
system.cpu1.branchPred.lookups                      0                       # Number of BP lookups
system.cpu1.branchPred.usedRAS                      0                       # Number of times the RAS was used to get a target.
system.cpu1.branchPredindirectMispredicted            0                       # Number of mispredicted indirect branches.
system.cpu1.committedInsts                          0                       # Number of instructions committed
system.cpu1.committedOps                            0                       # Number of ops (including micro ops) committed
system.cpu1.cpi                                   inf                       # CPI: cycles per instruction
system.cpu1.discardedOps                            0                       # Number of ops (including micro ops) which were discarded before commit
system.cpu1.dtb.accesses                            0                       # DTB accesses
system.cpu1.dtb.hits                                0                       # DTB hits
system.cpu1.dtb.misses                              0                       # DTB misses
system.cpu1.dtb.read_accesses                       0                       # DTB read accesses
system.cpu1.dtb.read_hits                           0                       # DTB read hits
system.cpu1.dtb.read_misses                         0                       # DTB read misses
system.cpu1.dtb.write_accesses                      0                       # DTB write accesses
system.cpu1.dtb.write_hits                          0                       # DTB write hits
system.cpu1.dtb.write_misses                        0                       # DTB write misses
system.cpu1.fetch2.amo_instructions                 0                       # Number of memory atomic instructions successfully decoded
system.cpu1.fetch2.fp_instructions                  0                       # Number of floating point instructions successfully decoded
system.cpu1.fetch2.int_instructions                 0                       # Number of integer instructions successfully decoded
system.cpu1.fetch2.load_instructions                0                       # Number of memory load instructions successfully decoded
system.cpu1.fetch2.store_instructions               0                       # Number of memory store instructions successfully decoded
system.cpu1.fetch2.vec_instructions                 0                       # Number of SIMD instructions successfully decoded
system.cpu1.idleCycles                              0                       # Total number of cycles that the object has spent stopped
system.cpu1.ipc                              0.000000                       # IPC: instructions per cycle
system.cpu1.itb.accesses                            0                       # DTB accesses
system.cpu1.itb.hits                                0                       # DTB hits
system.cpu1.itb.misses                              0                       # DTB misses
system.cpu1.itb.read_accesses                       0                       # DTB read accesses
system.cpu1.itb.read_hits                           0                       # DTB read hits
system.cpu1.itb.read_misses                         0                       # DTB read misses
system.cpu1.itb.write_accesses                      0                       # DTB write accesses
system.cpu1.itb.write_hits                          0                       # DTB write hits
system.cpu1.itb.write_misses                        0                       # DTB write misses
system.cpu1.numCycles                               2                       # number of cpu cycles simulated
system.cpu1.numFetchSuspends                        0                       # Number of times Execute suspended instruction fetching
system.cpu1.numWorkItemsCompleted                   0                       # number of work items this cpu completed
system.cpu1.numWorkItemsStarted                     0                       # number of work items this cpu started
system.cpu1.op_class_0::No_OpClass                  0                       # Class of committed instruction
system.cpu1.op_class_0::IntAlu                      0                       # Class of committed instruction
system.cpu1.op_class_0::IntMult                     0                       # Class of committed instruction
system.cpu1.op_class_0::IntDiv                      0                       # Class of committed instruction
system.cpu1.op_class_0::FloatAdd                    0                       # Class of committed instruction
system.cpu1.op_class_0::FloatCmp                    0                       # Class of committed instruction
system.cpu1.op_class_0::FloatCvt                    0                       # Class of committed instruction
system.cpu1.op_class_0::FloatMult                   0                       # Class of committed instruction
system.cpu1.op_class_0::FloatMultAcc                0                       # Class of committed instruction
system.cpu1.op_class_0::FloatDiv                    0                       # Class of committed instruction
system.cpu1.op_class_0::FloatMisc                   0                       # Class of committed instruction
system.cpu1.op_class_0::FloatSqrt                   0                       # Class of committed instruction
system.cpu1.op_class_0::SimdAdd                     0                       # Class of committed instruction
system.cpu1.op_class_0::SimdAddAcc                  0                       # Class of committed instruction
system.cpu1.op_class_0::SimdAlu                     0                       # Class of committed instruction
system.cpu1.op_class_0::SimdCmp                     0                       # Class of committed instruction
system.cpu1.op_class_0::SimdCvt                     0                       # Class of committed instruction
system.cpu1.op_class_0::SimdMisc                    0                       # Class of committed instruction
system.cpu1.op_class_0::SimdMult                    0                       # Class of committed instruction
system.cpu1.op_class_0::SimdMultAcc                 0                       # Class of committed instruction
system.cpu1.op_class_0::SimdShift                   0                       # Class of committed instruction
system.cpu1.op_class_0::SimdShiftAcc                0                       # Class of committed instruction
system.cpu1.op_class_0::SimdDiv                     0                       # Class of committed instruction
system.cpu1.op_class_0::SimdSqrt                    0                       # Class of committed instruction
system.cpu1.op_class_0::SimdFloatAdd                0                       # Class of committed instruction
system.cpu1.op_class_0::SimdFloatAlu                0                       # Class of committed instruction
system.cpu1.op_class_0::SimdFloatCmp                0                       # Class of committed instruction
system.cpu1.op_class_0::SimdFloatCvt                0                       # Class of committed instruction
system.cpu1.op_class_0::SimdFloatDiv                0                       # Class of committed instruction
system.cpu1.op_class_0::SimdFloatMisc               0                       # Class of committed instruction
system.cpu1.op_class_0::SimdFloatMult               0                       # Class of committed instruction
system.cpu1.op_class_0::SimdFloatMultAcc            0                       # Class of committed instruction
system.cpu1.op_class_0::SimdFloatSqrt               0                       # Class of committed instruction
system.cpu1.op_class_0::SimdReduceAdd               0                       # Class of committed instruction
system.cpu1.op_class_0::SimdReduceAlu               0                       # Class of committed instruction
system.cpu1.op_class_0::SimdReduceCmp               0                       # Class of committed instruction
system.cpu1.op_class_0::SimdFloatReduceAdd            0                       # Class of committed instruction
system.cpu1.op_class_0::SimdFloatReduceCmp            0                       # Class of committed instruction
system.cpu1.op_class_0::SimdAes                     0                       # Class of committed instruction
system.cpu1.op_class_0::SimdAesMix                  0                       # Class of committed instruction
system.cpu1.op_class_0::SimdSha1Hash                0                       # Class of committed instruction
system.cpu1.op_class_0::SimdSha1Hash2               0                       # Class of committed instruction
system.cpu1.op_class_0::SimdSha256Hash              0                       # Class of committed instruction
system.cpu1.op_class_0::SimdSha256Hash2             0                       # Class of committed instruction
system.cpu1.op_class_0::SimdShaSigma2               0                       # Class of committed instruction
system.cpu1.op_class_0::SimdShaSigma3               0                       # Class of committed instruction
system.cpu1.op_class_0::SimdPredAlu                 0                       # Class of committed instruction
system.cpu1.op_class_0::MemRead                     0                       # Class of committed instruction
system.cpu1.op_class_0::MemWrite                    0                       # Class of committed instruction
system.cpu1.op_class_0::FloatMemRead                0                       # Class of committed instruction
system.cpu1.op_class_0::FloatMemWrite               0                       # Class of committed instruction
system.cpu1.op_class_0::IprAccess                   0                       # Class of committed instruction
system.cpu1.op_class_0::InstPrefetch                0                       # Class of committed instruction
system.cpu1.op_class_0::total                       0                       # Class of committed instruction
system.cpu1.tickCycles                              2                       # Number of cycles that the object actually ticked
system.cpu2.branchPred.BTBCorrect                   0                       # Number of correct BTB predictions (this stat may not work properly.
system.cpu2.branchPred.BTBHitPct                  nan                       # BTB Hit Percentage
system.cpu2.branchPred.BTBHits                      0                       # Number of BTB hits
system.cpu2.branchPred.BTBLookups                   0                       # Number of BTB lookups
system.cpu2.branchPred.RASInCorrect                 0                       # Number of incorrect RAS predictions.
system.cpu2.branchPred.condIncorrect                0                       # Number of conditional branches incorrect
system.cpu2.branchPred.condPredicted                0                       # Number of conditional branches predicted
system.cpu2.branchPred.indirectHits                 0                       # Number of indirect target hits.
system.cpu2.branchPred.indirectLookups              0                       # Number of indirect predictor lookups.
system.cpu2.branchPred.indirectMisses               0                       # Number of indirect misses.
system.cpu2.branchPred.lookups                      0                       # Number of BP lookups
system.cpu2.branchPred.usedRAS                      0                       # Number of times the RAS was used to get a target.
system.cpu2.branchPredindirectMispredicted            0                       # Number of mispredicted indirect branches.
system.cpu2.committedInsts                          0                       # Number of instructions committed
system.cpu2.committedOps                            0                       # Number of ops (including micro ops) committed
system.cpu2.cpi                                   inf                       # CPI: cycles per instruction
system.cpu2.discardedOps                            0                       # Number of ops (including micro ops) which were discarded before commit
system.cpu2.dtb.accesses                            0                       # DTB accesses
system.cpu2.dtb.hits                                0                       # DTB hits
system.cpu2.dtb.misses                              0                       # DTB misses
system.cpu2.dtb.read_accesses                       0                       # DTB read accesses
system.cpu2.dtb.read_hits                           0                       # DTB read hits
system.cpu2.dtb.read_misses                         0                       # DTB read misses
system.cpu2.dtb.write_accesses                      0                       # DTB write accesses
system.cpu2.dtb.write_hits                          0                       # DTB write hits
system.cpu2.dtb.write_misses                        0                       # DTB write misses
system.cpu2.fetch2.amo_instructions                 0                       # Number of memory atomic instructions successfully decoded
system.cpu2.fetch2.fp_instructions                  0                       # Number of floating point instructions successfully decoded
system.cpu2.fetch2.int_instructions                 0                       # Number of integer instructions successfully decoded
system.cpu2.fetch2.load_instructions                0                       # Number of memory load instructions successfully decoded
system.cpu2.fetch2.store_instructions               0                       # Number of memory store instructions successfully decoded
system.cpu2.fetch2.vec_instructions                 0                       # Number of SIMD instructions successfully decoded
system.cpu2.idleCycles                              0                       # Total number of cycles that the object has spent stopped
system.cpu2.ipc                              0.000000                       # IPC: instructions per cycle
system.cpu2.itb.accesses                            0                       # DTB accesses
system.cpu2.itb.hits                                0                       # DTB hits
system.cpu2.itb.misses                              0                       # DTB misses
system.cpu2.itb.read_accesses                       0                       # DTB read accesses
system.cpu2.itb.read_hits                           0                       # DTB read hits
system.cpu2.itb.read_misses                         0                       # DTB read misses
system.cpu2.itb.write_accesses                      0                       # DTB write accesses
system.cpu2.itb.write_hits                          0                       # DTB write hits
system.cpu2.itb.write_misses                        0                       # DTB write misses
system.cpu2.numCycles                               2                       # number of cpu cycles simulated
system.cpu2.numFetchSuspends                        0                       # Number of times Execute suspended instruction fetching
system.cpu2.numWorkItemsCompleted                   0                       # number of work items this cpu completed
system.cpu2.numWorkItemsStarted                     0                       # number of work items this cpu started
system.cpu2.op_class_0::No_OpClass                  0                       # Class of committed instruction
system.cpu2.op_class_0::IntAlu                      0                       # Class of committed instruction
system.cpu2.op_class_0::IntMult                     0                       # Class of committed instruction
system.cpu2.op_class_0::IntDiv                      0                       # Class of committed instruction
system.cpu2.op_class_0::FloatAdd                    0                       # Class of committed instruction
system.cpu2.op_class_0::FloatCmp                    0                       # Class of committed instruction
system.cpu2.op_class_0::FloatCvt                    0                       # Class of committed instruction
system.cpu2.op_class_0::FloatMult                   0                       # Class of committed instruction
system.cpu2.op_class_0::FloatMultAcc                0                       # Class of committed instruction
system.cpu2.op_class_0::FloatDiv                    0                       # Class of committed instruction
system.cpu2.op_class_0::FloatMisc                   0                       # Class of committed instruction
system.cpu2.op_class_0::FloatSqrt                   0                       # Class of committed instruction
system.cpu2.op_class_0::SimdAdd                     0                       # Class of committed instruction
system.cpu2.op_class_0::SimdAddAcc                  0                       # Class of committed instruction
system.cpu2.op_class_0::SimdAlu                     0                       # Class of committed instruction
system.cpu2.op_class_0::SimdCmp                     0                       # Class of committed instruction
system.cpu2.op_class_0::SimdCvt                     0                       # Class of committed instruction
system.cpu2.op_class_0::SimdMisc                    0                       # Class of committed instruction
system.cpu2.op_class_0::SimdMult                    0                       # Class of committed instruction
system.cpu2.op_class_0::SimdMultAcc                 0                       # Class of committed instruction
system.cpu2.op_class_0::SimdShift                   0                       # Class of committed instruction
system.cpu2.op_class_0::SimdShiftAcc                0                       # Class of committed instruction
system.cpu2.op_class_0::SimdDiv                     0                       # Class of committed instruction
system.cpu2.op_class_0::SimdSqrt                    0                       # Class of committed instruction
system.cpu2.op_class_0::SimdFloatAdd                0                       # Class of committed instruction
system.cpu2.op_class_0::SimdFloatAlu                0                       # Class of committed instruction
system.cpu2.op_class_0::SimdFloatCmp                0                       # Class of committed instruction
system.cpu2.op_class_0::SimdFloatCvt                0                       # Class of committed instruction
system.cpu2.op_class_0::SimdFloatDiv                0                       # Class of committed instruction
system.cpu2.op_class_0::SimdFloatMisc               0                       # Class of committed instruction
system.cpu2.op_class_0::SimdFloatMult               0                       # Class of committed instruction
system.cpu2.op_class_0::SimdFloatMultAcc            0                       # Class of committed instruction
system.cpu2.op_class_0::SimdFloatSqrt               0                       # Class of committed instruction
system.cpu2.op_class_0::SimdReduceAdd               0                       # Class of committed instruction
system.cpu2.op_class_0::SimdReduceAlu               0                       # Class of committed instruction
system.cpu2.op_class_0::SimdReduceCmp               0                       # Class of committed instruction
system.cpu2.op_class_0::SimdFloatReduceAdd            0                       # Class of committed instruction
system.cpu2.op_class_0::SimdFloatReduceCmp            0                       # Class of committed instruction
system.cpu2.op_class_0::SimdAes                     0                       # Class of committed instruction
system.cpu2.op_class_0::SimdAesMix                  0                       # Class of committed instruction
system.cpu2.op_class_0::SimdSha1Hash                0                       # Class of committed instruction
system.cpu2.op_class_0::SimdSha1Hash2               0                       # Class of committed instruction
system.cpu2.op_class_0::SimdSha256Hash              0                       # Class of committed instruction
system.cpu2.op_class_0::SimdSha256Hash2             0                       # Class of committed instruction
system.cpu2.op_class_0::SimdShaSigma2               0                       # Class of committed instruction
system.cpu2.op_class_0::SimdShaSigma3               0                       # Class of committed instruction
system.cpu2.op_class_0::SimdPredAlu                 0                       # Class of committed instruction
system.cpu2.op_class_0::MemRead                     0                       # Class of committed instruction
system.cpu2.op_class_0::MemWrite                    0                       # Class of committed instruction
system.cpu2.op_class_0::FloatMemRead                0                       # Class of committed instruction
system.cpu2.op_class_0::FloatMemWrite               0                       # Class of committed instruction
system.cpu2.op_class_0::IprAccess                   0                       # Class of committed instruction
system.cpu2.op_class_0::InstPrefetch                0                       # Class of committed instruction
system.cpu2.op_class_0::total                       0                       # Class of committed instruction
system.cpu2.tickCycles                              2                       # Number of cycles that the object actually ticked
system.cpu3.branchPred.BTBCorrect                   0                       # Number of correct BTB predictions (this stat may not work properly.
system.cpu3.branchPred.BTBHitPct                  nan                       # BTB Hit Percentage
system.cpu3.branchPred.BTBHits                      0                       # Number of BTB hits
system.cpu3.branchPred.BTBLookups                   0                       # Number of BTB lookups
system.cpu3.branchPred.RASInCorrect                 0                       # Number of incorrect RAS predictions.
system.cpu3.branchPred.condIncorrect                0                       # Number of conditional branches incorrect
system.cpu3.branchPred.condPredicted                0                       # Number of conditional branches predicted
system.cpu3.branchPred.indirectHits                 0                       # Number of indirect target hits.
system.cpu3.branchPred.indirectLookups              0                       # Number of indirect predictor lookups.
system.cpu3.branchPred.indirectMisses               0                       # Number of indirect misses.
system.cpu3.branchPred.lookups                      0                       # Number of BP lookups
system.cpu3.branchPred.usedRAS                      0                       # Number of times the RAS was used to get a target.
system.cpu3.branchPredindirectMispredicted            0                       # Number of mispredicted indirect branches.
system.cpu3.committedInsts                          0                       # Number of instructions committed
system.cpu3.committedOps                            0                       # Number of ops (including micro ops) committed
system.cpu3.cpi                                   inf                       # CPI: cycles per instruction
system.cpu3.discardedOps                            0                       # Number of ops (including micro ops) which were discarded before commit
system.cpu3.dtb.accesses                            0                       # DTB accesses
system.cpu3.dtb.hits                                0                       # DTB hits
system.cpu3.dtb.misses                              0                       # DTB misses
system.cpu3.dtb.read_accesses                       0                       # DTB read accesses
system.cpu3.dtb.read_hits                           0                       # DTB read hits
system.cpu3.dtb.read_misses                         0                       # DTB read misses
system.cpu3.dtb.write_accesses                      0                       # DTB write accesses
system.cpu3.dtb.write_hits                          0                       # DTB write hits
system.cpu3.dtb.write_misses                        0                       # DTB write misses
system.cpu3.fetch2.amo_instructions                 0                       # Number of memory atomic instructions successfully decoded
system.cpu3.fetch2.fp_instructions                  0                       # Number of floating point instructions successfully decoded
system.cpu3.fetch2.int_instructions                 0                       # Number of integer instructions successfully decoded
system.cpu3.fetch2.load_instructions                0                       # Number of memory load instructions successfully decoded
system.cpu3.fetch2.store_instructions               0                       # Number of memory store instructions successfully decoded
system.cpu3.fetch2.vec_instructions                 0                       # Number of SIMD instructions successfully decoded
system.cpu3.idleCycles                              0                       # Total number of cycles that the object has spent stopped
system.cpu3.ipc                              0.000000                       # IPC: instructions per cycle
system.cpu3.itb.accesses                            0                       # DTB accesses
system.cpu3.itb.hits                                0                       # DTB hits
system.cpu3.itb.misses                              0                       # DTB misses
system.cpu3.itb.read_accesses                       0                       # DTB read accesses
system.cpu3.itb.read_hits                           0                       # DTB read hits
system.cpu3.itb.read_misses                         0                       # DTB read misses
system.cpu3.itb.write_accesses                      0                       # DTB write accesses
system.cpu3.itb.write_hits                          0                       # DTB write hits
system.cpu3.itb.write_misses                        0                       # DTB write misses
system.cpu3.numCycles                               2                       # number of cpu cycles simulated
system.cpu3.numFetchSuspends                        0                       # Number of times Execute suspended instruction fetching
system.cpu3.numWorkItemsCompleted                   0                       # number of work items this cpu completed
system.cpu3.numWorkItemsStarted                     0                       # number of work items this cpu started
system.cpu3.op_class_0::No_OpClass                  0                       # Class of committed instruction
system.cpu3.op_class_0::IntAlu                      0                       # Class of committed instruction
system.cpu3.op_class_0::IntMult                     0                       # Class of committed instruction
system.cpu3.op_class_0::IntDiv                      0                       # Class of committed instruction
system.cpu3.op_class_0::FloatAdd                    0                       # Class of committed instruction
system.cpu3.op_class_0::FloatCmp                    0                       # Class of committed instruction
system.cpu3.op_class_0::FloatCvt                    0                       # Class of committed instruction
system.cpu3.op_class_0::FloatMult                   0                       # Class of committed instruction
system.cpu3.op_class_0::FloatMultAcc                0                       # Class of committed instruction
system.cpu3.op_class_0::FloatDiv                    0                       # Class of committed instruction
system.cpu3.op_class_0::FloatMisc                   0                       # Class of committed instruction
system.cpu3.op_class_0::FloatSqrt                   0                       # Class of committed instruction
system.cpu3.op_class_0::SimdAdd                     0                       # Class of committed instruction
system.cpu3.op_class_0::SimdAddAcc                  0                       # Class of committed instruction
system.cpu3.op_class_0::SimdAlu                     0                       # Class of committed instruction
system.cpu3.op_class_0::SimdCmp                     0                       # Class of committed instruction
system.cpu3.op_class_0::SimdCvt                     0                       # Class of committed instruction
system.cpu3.op_class_0::SimdMisc                    0                       # Class of committed instruction
system.cpu3.op_class_0::SimdMult                    0                       # Class of committed instruction
system.cpu3.op_class_0::SimdMultAcc                 0                       # Class of committed instruction
system.cpu3.op_class_0::SimdShift                   0                       # Class of committed instruction
system.cpu3.op_class_0::SimdShiftAcc                0                       # Class of committed instruction
system.cpu3.op_class_0::SimdDiv                     0                       # Class of committed instruction
system.cpu3.op_class_0::SimdSqrt                    0                       # Class of committed instruction
system.cpu3.op_class_0::SimdFloatAdd                0                       # Class of committed instruction
system.cpu3.op_class_0::SimdFloatAlu                0                       # Class of committed instruction
system.cpu3.op_class_0::SimdFloatCmp                0                       # Class of committed instruction
system.cpu3.op_class_0::SimdFloatCvt                0                       # Class of committed instruction
system.cpu3.op_class_0::SimdFloatDiv                0                       # Class of committed instruction
system.cpu3.op_class_0::SimdFloatMisc               0                       # Class of committed instruction
system.cpu3.op_class_0::SimdFloatMult               0                       # Class of committed instruction
system.cpu3.op_class_0::SimdFloatMultAcc            0                       # Class of committed instruction
system.cpu3.op_class_0::SimdFloatSqrt               0                       # Class of committed instruction
system.cpu3.op_class_0::SimdReduceAdd               0                       # Class of committed instruction
system.cpu3.op_class_0::SimdReduceAlu               0                       # Class of committed instruction
system.cpu3.op_class_0::SimdReduceCmp               0                       # Class of committed instruction
system.cpu3.op_class_0::SimdFloatReduceAdd            0                       # Class of committed instruction
system.cpu3.op_class_0::SimdFloatReduceCmp            0                       # Class of committed instruction
system.cpu3.op_class_0::SimdAes                     0                       # Class of committed instruction
system.cpu3.op_class_0::SimdAesMix                  0                       # Class of committed instruction
system.cpu3.op_class_0::SimdSha1Hash                0                       # Class of committed instruction
system.cpu3.op_class_0::SimdSha1Hash2               0                       # Class of committed instruction
system.cpu3.op_class_0::SimdSha256Hash              0                       # Class of committed instruction
system.cpu3.op_class_0::SimdSha256Hash2             0                       # Class of committed instruction
system.cpu3.op_class_0::SimdShaSigma2               0                       # Class of committed instruction
system.cpu3.op_class_0::SimdShaSigma3               0                       # Class of committed instruction
system.cpu3.op_class_0::SimdPredAlu                 0                       # Class of committed instruction
system.cpu3.op_class_0::MemRead                     0                       # Class of committed instruction
system.cpu3.op_class_0::MemWrite                    0                       # Class of committed instruction
system.cpu3.op_class_0::FloatMemRead                0                       # Class of committed instruction
system.cpu3.op_class_0::FloatMemWrite               0                       # Class of committed instruction
system.cpu3.op_class_0::IprAccess                   0                       # Class of committed instruction
system.cpu3.op_class_0::InstPrefetch                0                       # Class of committed instruction
system.cpu3.op_class_0::total                       0                       # Class of committed instruction
system.cpu3.tickCycles                              2                       # Number of cycles that the object actually ticked
system.cpu4.branchPred.BTBCorrect                   0                       # Number of correct BTB predictions (this stat may not work properly.
system.cpu4.branchPred.BTBHitPct                  nan                       # BTB Hit Percentage
system.cpu4.branchPred.BTBHits                      0                       # Number of BTB hits
system.cpu4.branchPred.BTBLookups                   0                       # Number of BTB lookups
system.cpu4.branchPred.RASInCorrect                 0                       # Number of incorrect RAS predictions.
system.cpu4.branchPred.condIncorrect                0                       # Number of conditional branches incorrect
system.cpu4.branchPred.condPredicted                0                       # Number of conditional branches predicted
system.cpu4.branchPred.indirectHits                 0                       # Number of indirect target hits.
system.cpu4.branchPred.indirectLookups              0                       # Number of indirect predictor lookups.
system.cpu4.branchPred.indirectMisses               0                       # Number of indirect misses.
system.cpu4.branchPred.lookups                      0                       # Number of BP lookups
system.cpu4.branchPred.usedRAS                      0                       # Number of times the RAS was used to get a target.
system.cpu4.branchPredindirectMispredicted            0                       # Number of mispredicted indirect branches.
system.cpu4.committedInsts                          0                       # Number of instructions committed
system.cpu4.committedOps                            0                       # Number of ops (including micro ops) committed
system.cpu4.cpi                                   inf                       # CPI: cycles per instruction
system.cpu4.discardedOps                            0                       # Number of ops (including micro ops) which were discarded before commit
system.cpu4.dtb.accesses                            0                       # DTB accesses
system.cpu4.dtb.hits                                0                       # DTB hits
system.cpu4.dtb.misses                              0                       # DTB misses
system.cpu4.dtb.read_accesses                       0                       # DTB read accesses
system.cpu4.dtb.read_hits                           0                       # DTB read hits
system.cpu4.dtb.read_misses                         0                       # DTB read misses
system.cpu4.dtb.write_accesses                      0                       # DTB write accesses
system.cpu4.dtb.write_hits                          0                       # DTB write hits
system.cpu4.dtb.write_misses                        0                       # DTB write misses
system.cpu4.fetch2.amo_instructions                 0                       # Number of memory atomic instructions successfully decoded
system.cpu4.fetch2.fp_instructions                  0                       # Number of floating point instructions successfully decoded
system.cpu4.fetch2.int_instructions                 0                       # Number of integer instructions successfully decoded
system.cpu4.fetch2.load_instructions                0                       # Number of memory load instructions successfully decoded
system.cpu4.fetch2.store_instructions               0                       # Number of memory store instructions successfully decoded
system.cpu4.fetch2.vec_instructions                 0                       # Number of SIMD instructions successfully decoded
system.cpu4.idleCycles                              0                       # Total number of cycles that the object has spent stopped
system.cpu4.ipc                              0.000000                       # IPC: instructions per cycle
system.cpu4.itb.accesses                            0                       # DTB accesses
system.cpu4.itb.hits                                0                       # DTB hits
system.cpu4.itb.misses                              0                       # DTB misses
system.cpu4.itb.read_accesses                       0                       # DTB read accesses
system.cpu4.itb.read_hits                           0                       # DTB read hits
system.cpu4.itb.read_misses                         0                       # DTB read misses
system.cpu4.itb.write_accesses                      0                       # DTB write accesses
system.cpu4.itb.write_hits                          0                       # DTB write hits
system.cpu4.itb.write_misses                        0                       # DTB write misses
system.cpu4.numCycles                               2                       # number of cpu cycles simulated
system.cpu4.numFetchSuspends                        0                       # Number of times Execute suspended instruction fetching
system.cpu4.numWorkItemsCompleted                   0                       # number of work items this cpu completed
system.cpu4.numWorkItemsStarted                     0                       # number of work items this cpu started
system.cpu4.op_class_0::No_OpClass                  0                       # Class of committed instruction
system.cpu4.op_class_0::IntAlu                      0                       # Class of committed instruction
system.cpu4.op_class_0::IntMult                     0                       # Class of committed instruction
system.cpu4.op_class_0::IntDiv                      0                       # Class of committed instruction
system.cpu4.op_class_0::FloatAdd                    0                       # Class of committed instruction
system.cpu4.op_class_0::FloatCmp                    0                       # Class of committed instruction
system.cpu4.op_class_0::FloatCvt                    0                       # Class of committed instruction
system.cpu4.op_class_0::FloatMult                   0                       # Class of committed instruction
system.cpu4.op_class_0::FloatMultAcc                0                       # Class of committed instruction
system.cpu4.op_class_0::FloatDiv                    0                       # Class of committed instruction
system.cpu4.op_class_0::FloatMisc                   0                       # Class of committed instruction
system.cpu4.op_class_0::FloatSqrt                   0                       # Class of committed instruction
system.cpu4.op_class_0::SimdAdd                     0                       # Class of committed instruction
system.cpu4.op_class_0::SimdAddAcc                  0                       # Class of committed instruction
system.cpu4.op_class_0::SimdAlu                     0                       # Class of committed instruction
system.cpu4.op_class_0::SimdCmp                     0                       # Class of committed instruction
system.cpu4.op_class_0::SimdCvt                     0                       # Class of committed instruction
system.cpu4.op_class_0::SimdMisc                    0                       # Class of committed instruction
system.cpu4.op_class_0::SimdMult                    0                       # Class of committed instruction
system.cpu4.op_class_0::SimdMultAcc                 0                       # Class of committed instruction
system.cpu4.op_class_0::SimdShift                   0                       # Class of committed instruction
system.cpu4.op_class_0::SimdShiftAcc                0                       # Class of committed instruction
system.cpu4.op_class_0::SimdDiv                     0                       # Class of committed instruction
system.cpu4.op_class_0::SimdSqrt                    0                       # Class of committed instruction
system.cpu4.op_class_0::SimdFloatAdd                0                       # Class of committed instruction
system.cpu4.op_class_0::SimdFloatAlu                0                       # Class of committed instruction
system.cpu4.op_class_0::SimdFloatCmp                0                       # Class of committed instruction
system.cpu4.op_class_0::SimdFloatCvt                0                       # Class of committed instruction
system.cpu4.op_class_0::SimdFloatDiv                0                       # Class of committed instruction
system.cpu4.op_class_0::SimdFloatMisc               0                       # Class of committed instruction
system.cpu4.op_class_0::SimdFloatMult               0                       # Class of committed instruction
system.cpu4.op_class_0::SimdFloatMultAcc            0                       # Class of committed instruction
system.cpu4.op_class_0::SimdFloatSqrt               0                       # Class of committed instruction
system.cpu4.op_class_0::SimdReduceAdd               0                       # Class of committed instruction
system.cpu4.op_class_0::SimdReduceAlu               0                       # Class of committed instruction
system.cpu4.op_class_0::SimdReduceCmp               0                       # Class of committed instruction
system.cpu4.op_class_0::SimdFloatReduceAdd            0                       # Class of committed instruction
system.cpu4.op_class_0::SimdFloatReduceCmp            0                       # Class of committed instruction
system.cpu4.op_class_0::SimdAes                     0                       # Class of committed instruction
system.cpu4.op_class_0::SimdAesMix                  0                       # Class of committed instruction
system.cpu4.op_class_0::SimdSha1Hash                0                       # Class of committed instruction
system.cpu4.op_class_0::SimdSha1Hash2               0                       # Class of committed instruction
system.cpu4.op_class_0::SimdSha256Hash              0                       # Class of committed instruction
system.cpu4.op_class_0::SimdSha256Hash2             0                       # Class of committed instruction
system.cpu4.op_class_0::SimdShaSigma2               0                       # Class of committed instruction
system.cpu4.op_class_0::SimdShaSigma3               0                       # Class of committed instruction
system.cpu4.op_class_0::SimdPredAlu                 0                       # Class of committed instruction
system.cpu4.op_class_0::MemRead                     0                       # Class of committed instruction
system.cpu4.op_class_0::MemWrite                    0                       # Class of committed instruction
system.cpu4.op_class_0::FloatMemRead                0                       # Class of committed instruction
system.cpu4.op_class_0::FloatMemWrite               0                       # Class of committed instruction
system.cpu4.op_class_0::IprAccess                   0                       # Class of committed instruction
system.cpu4.op_class_0::InstPrefetch                0                       # Class of committed instruction
system.cpu4.op_class_0::total                       0                       # Class of committed instruction
system.cpu4.tickCycles                              2                       # Number of cycles that the object actually ticked
system.cpu5.branchPred.BTBCorrect                   0                       # Number of correct BTB predictions (this stat may not work properly.
system.cpu5.branchPred.BTBHitPct                  nan                       # BTB Hit Percentage
system.cpu5.branchPred.BTBHits                      0                       # Number of BTB hits
system.cpu5.branchPred.BTBLookups                   0                       # Number of BTB lookups
system.cpu5.branchPred.RASInCorrect                 0                       # Number of incorrect RAS predictions.
system.cpu5.branchPred.condIncorrect                0                       # Number of conditional branches incorrect
system.cpu5.branchPred.condPredicted                0                       # Number of conditional branches predicted
system.cpu5.branchPred.indirectHits                 0                       # Number of indirect target hits.
system.cpu5.branchPred.indirectLookups              0                       # Number of indirect predictor lookups.
system.cpu5.branchPred.indirectMisses               0                       # Number of indirect misses.
system.cpu5.branchPred.lookups                      0                       # Number of BP lookups
system.cpu5.branchPred.usedRAS                      0                       # Number of times the RAS was used to get a target.
system.cpu5.branchPredindirectMispredicted            0                       # Number of mispredicted indirect branches.
system.cpu5.committedInsts                          0                       # Number of instructions committed
system.cpu5.committedOps                            0                       # Number of ops (including micro ops) committed
system.cpu5.cpi                                   inf                       # CPI: cycles per instruction
system.cpu5.discardedOps                            0                       # Number of ops (including micro ops) which were discarded before commit
system.cpu5.dtb.accesses                            0                       # DTB accesses
system.cpu5.dtb.hits                                0                       # DTB hits
system.cpu5.dtb.misses                              0                       # DTB misses
system.cpu5.dtb.read_accesses                       0                       # DTB read accesses
system.cpu5.dtb.read_hits                           0                       # DTB read hits
system.cpu5.dtb.read_misses                         0                       # DTB read misses
system.cpu5.dtb.write_accesses                      0                       # DTB write accesses
system.cpu5.dtb.write_hits                          0                       # DTB write hits
system.cpu5.dtb.write_misses                        0                       # DTB write misses
system.cpu5.fetch2.amo_instructions                 0                       # Number of memory atomic instructions successfully decoded
system.cpu5.fetch2.fp_instructions                  0                       # Number of floating point instructions successfully decoded
system.cpu5.fetch2.int_instructions                 0                       # Number of integer instructions successfully decoded
system.cpu5.fetch2.load_instructions                0                       # Number of memory load instructions successfully decoded
system.cpu5.fetch2.store_instructions               0                       # Number of memory store instructions successfully decoded
system.cpu5.fetch2.vec_instructions                 0                       # Number of SIMD instructions successfully decoded
system.cpu5.idleCycles                              0                       # Total number of cycles that the object has spent stopped
system.cpu5.ipc                              0.000000                       # IPC: instructions per cycle
system.cpu5.itb.accesses                            0                       # DTB accesses
system.cpu5.itb.hits                                0                       # DTB hits
system.cpu5.itb.misses                              0                       # DTB misses
system.cpu5.itb.read_accesses                       0                       # DTB read accesses
system.cpu5.itb.read_hits                           0                       # DTB read hits
system.cpu5.itb.read_misses                         0                       # DTB read misses
system.cpu5.itb.write_accesses                      0                       # DTB write accesses
system.cpu5.itb.write_hits                          0                       # DTB write hits
system.cpu5.itb.write_misses                        0                       # DTB write misses
system.cpu5.numCycles                               2                       # number of cpu cycles simulated
system.cpu5.numFetchSuspends                        0                       # Number of times Execute suspended instruction fetching
system.cpu5.numWorkItemsCompleted                   0                       # number of work items this cpu completed
system.cpu5.numWorkItemsStarted                     0                       # number of work items this cpu started
system.cpu5.op_class_0::No_OpClass                  0                       # Class of committed instruction
system.cpu5.op_class_0::IntAlu                      0                       # Class of committed instruction
system.cpu5.op_class_0::IntMult                     0                       # Class of committed instruction
system.cpu5.op_class_0::IntDiv                      0                       # Class of committed instruction
system.cpu5.op_class_0::FloatAdd                    0                       # Class of committed instruction
system.cpu5.op_class_0::FloatCmp                    0                       # Class of committed instruction
system.cpu5.op_class_0::FloatCvt                    0                       # Class of committed instruction
system.cpu5.op_class_0::FloatMult                   0                       # Class of committed instruction
system.cpu5.op_class_0::FloatMultAcc                0                       # Class of committed instruction
system.cpu5.op_class_0::FloatDiv                    0                       # Class of committed instruction
system.cpu5.op_class_0::FloatMisc                   0                       # Class of committed instruction
system.cpu5.op_class_0::FloatSqrt                   0                       # Class of committed instruction
system.cpu5.op_class_0::SimdAdd                     0                       # Class of committed instruction
system.cpu5.op_class_0::SimdAddAcc                  0                       # Class of committed instruction
system.cpu5.op_class_0::SimdAlu                     0                       # Class of committed instruction
system.cpu5.op_class_0::SimdCmp                     0                       # Class of committed instruction
system.cpu5.op_class_0::SimdCvt                     0                       # Class of committed instruction
system.cpu5.op_class_0::SimdMisc                    0                       # Class of committed instruction
system.cpu5.op_class_0::SimdMult                    0                       # Class of committed instruction
system.cpu5.op_class_0::SimdMultAcc                 0                       # Class of committed instruction
system.cpu5.op_class_0::SimdShift                   0                       # Class of committed instruction
system.cpu5.op_class_0::SimdShiftAcc                0                       # Class of committed instruction
system.cpu5.op_class_0::SimdDiv                     0                       # Class of committed instruction
system.cpu5.op_class_0::SimdSqrt                    0                       # Class of committed instruction
system.cpu5.op_class_0::SimdFloatAdd                0                       # Class of committed instruction
system.cpu5.op_class_0::SimdFloatAlu                0                       # Class of committed instruction
system.cpu5.op_class_0::SimdFloatCmp                0                       # Class of committed instruction
system.cpu5.op_class_0::SimdFloatCvt                0                       # Class of committed instruction
system.cpu5.op_class_0::SimdFloatDiv                0                       # Class of committed instruction
system.cpu5.op_class_0::SimdFloatMisc               0                       # Class of committed instruction
system.cpu5.op_class_0::SimdFloatMult               0                       # Class of committed instruction
system.cpu5.op_class_0::SimdFloatMultAcc            0                       # Class of committed instruction
system.cpu5.op_class_0::SimdFloatSqrt               0                       # Class of committed instruction
system.cpu5.op_class_0::SimdReduceAdd               0                       # Class of committed instruction
system.cpu5.op_class_0::SimdReduceAlu               0                       # Class of committed instruction
system.cpu5.op_class_0::SimdReduceCmp               0                       # Class of committed instruction
system.cpu5.op_class_0::SimdFloatReduceAdd            0                       # Class of committed instruction
system.cpu5.op_class_0::SimdFloatReduceCmp            0                       # Class of committed instruction
system.cpu5.op_class_0::SimdAes                     0                       # Class of committed instruction
system.cpu5.op_class_0::SimdAesMix                  0                       # Class of committed instruction
system.cpu5.op_class_0::SimdSha1Hash                0                       # Class of committed instruction
system.cpu5.op_class_0::SimdSha1Hash2               0                       # Class of committed instruction
system.cpu5.op_class_0::SimdSha256Hash              0                       # Class of committed instruction
system.cpu5.op_class_0::SimdSha256Hash2             0                       # Class of committed instruction
system.cpu5.op_class_0::SimdShaSigma2               0                       # Class of committed instruction
system.cpu5.op_class_0::SimdShaSigma3               0                       # Class of committed instruction
system.cpu5.op_class_0::SimdPredAlu                 0                       # Class of committed instruction
system.cpu5.op_class_0::MemRead                     0                       # Class of committed instruction
system.cpu5.op_class_0::MemWrite                    0                       # Class of committed instruction
system.cpu5.op_class_0::FloatMemRead                0                       # Class of committed instruction
system.cpu5.op_class_0::FloatMemWrite               0                       # Class of committed instruction
system.cpu5.op_class_0::IprAccess                   0                       # Class of committed instruction
system.cpu5.op_class_0::InstPrefetch                0                       # Class of committed instruction
system.cpu5.op_class_0::total                       0                       # Class of committed instruction
system.cpu5.tickCycles                              2                       # Number of cycles that the object actually ticked
system.cpu6.branchPred.BTBCorrect                   0                       # Number of correct BTB predictions (this stat may not work properly.
system.cpu6.branchPred.BTBHitPct                  nan                       # BTB Hit Percentage
system.cpu6.branchPred.BTBHits                      0                       # Number of BTB hits
system.cpu6.branchPred.BTBLookups                   0                       # Number of BTB lookups
system.cpu6.branchPred.RASInCorrect                 0                       # Number of incorrect RAS predictions.
system.cpu6.branchPred.condIncorrect                0                       # Number of conditional branches incorrect
system.cpu6.branchPred.condPredicted                0                       # Number of conditional branches predicted
system.cpu6.branchPred.indirectHits                 0                       # Number of indirect target hits.
system.cpu6.branchPred.indirectLookups              0                       # Number of indirect predictor lookups.
system.cpu6.branchPred.indirectMisses               0                       # Number of indirect misses.
system.cpu6.branchPred.lookups                      0                       # Number of BP lookups
system.cpu6.branchPred.usedRAS                      0                       # Number of times the RAS was used to get a target.
system.cpu6.branchPredindirectMispredicted            0                       # Number of mispredicted indirect branches.
system.cpu6.committedInsts                          0                       # Number of instructions committed
system.cpu6.committedOps                            0                       # Number of ops (including micro ops) committed
system.cpu6.cpi                                   inf                       # CPI: cycles per instruction
system.cpu6.discardedOps                            0                       # Number of ops (including micro ops) which were discarded before commit
system.cpu6.dtb.accesses                            0                       # DTB accesses
system.cpu6.dtb.hits                                0                       # DTB hits
system.cpu6.dtb.misses                              0                       # DTB misses
system.cpu6.dtb.read_accesses                       0                       # DTB read accesses
system.cpu6.dtb.read_hits                           0                       # DTB read hits
system.cpu6.dtb.read_misses                         0                       # DTB read misses
system.cpu6.dtb.write_accesses                      0                       # DTB write accesses
system.cpu6.dtb.write_hits                          0                       # DTB write hits
system.cpu6.dtb.write_misses                        0                       # DTB write misses
system.cpu6.fetch2.amo_instructions                 0                       # Number of memory atomic instructions successfully decoded
system.cpu6.fetch2.fp_instructions                  0                       # Number of floating point instructions successfully decoded
system.cpu6.fetch2.int_instructions                 0                       # Number of integer instructions successfully decoded
system.cpu6.fetch2.load_instructions                0                       # Number of memory load instructions successfully decoded
system.cpu6.fetch2.store_instructions               0                       # Number of memory store instructions successfully decoded
system.cpu6.fetch2.vec_instructions                 0                       # Number of SIMD instructions successfully decoded
system.cpu6.idleCycles                              0                       # Total number of cycles that the object has spent stopped
system.cpu6.ipc                              0.000000                       # IPC: instructions per cycle
system.cpu6.itb.accesses                            0                       # DTB accesses
system.cpu6.itb.hits                                0                       # DTB hits
system.cpu6.itb.misses                              0                       # DTB misses
system.cpu6.itb.read_accesses                       0                       # DTB read accesses
system.cpu6.itb.read_hits                           0                       # DTB read hits
system.cpu6.itb.read_misses                         0                       # DTB read misses
system.cpu6.itb.write_accesses                      0                       # DTB write accesses
system.cpu6.itb.write_hits                          0                       # DTB write hits
system.cpu6.itb.write_misses                        0                       # DTB write misses
system.cpu6.numCycles                               2                       # number of cpu cycles simulated
system.cpu6.numFetchSuspends                        0                       # Number of times Execute suspended instruction fetching
system.cpu6.numWorkItemsCompleted                   0                       # number of work items this cpu completed
system.cpu6.numWorkItemsStarted                     0                       # number of work items this cpu started
system.cpu6.op_class_0::No_OpClass                  0                       # Class of committed instruction
system.cpu6.op_class_0::IntAlu                      0                       # Class of committed instruction
system.cpu6.op_class_0::IntMult                     0                       # Class of committed instruction
system.cpu6.op_class_0::IntDiv                      0                       # Class of committed instruction
system.cpu6.op_class_0::FloatAdd                    0                       # Class of committed instruction
system.cpu6.op_class_0::FloatCmp                    0                       # Class of committed instruction
system.cpu6.op_class_0::FloatCvt                    0                       # Class of committed instruction
system.cpu6.op_class_0::FloatMult                   0                       # Class of committed instruction
system.cpu6.op_class_0::FloatMultAcc                0                       # Class of committed instruction
system.cpu6.op_class_0::FloatDiv                    0                       # Class of committed instruction
system.cpu6.op_class_0::FloatMisc                   0                       # Class of committed instruction
system.cpu6.op_class_0::FloatSqrt                   0                       # Class of committed instruction
system.cpu6.op_class_0::SimdAdd                     0                       # Class of committed instruction
system.cpu6.op_class_0::SimdAddAcc                  0                       # Class of committed instruction
system.cpu6.op_class_0::SimdAlu                     0                       # Class of committed instruction
system.cpu6.op_class_0::SimdCmp                     0                       # Class of committed instruction
system.cpu6.op_class_0::SimdCvt                     0                       # Class of committed instruction
system.cpu6.op_class_0::SimdMisc                    0                       # Class of committed instruction
system.cpu6.op_class_0::SimdMult                    0                       # Class of committed instruction
system.cpu6.op_class_0::SimdMultAcc                 0                       # Class of committed instruction
system.cpu6.op_class_0::SimdShift                   0                       # Class of committed instruction
system.cpu6.op_class_0::SimdShiftAcc                0                       # Class of committed instruction
system.cpu6.op_class_0::SimdDiv                     0                       # Class of committed instruction
system.cpu6.op_class_0::SimdSqrt                    0                       # Class of committed instruction
system.cpu6.op_class_0::SimdFloatAdd                0                       # Class of committed instruction
system.cpu6.op_class_0::SimdFloatAlu                0                       # Class of committed instruction
system.cpu6.op_class_0::SimdFloatCmp                0                       # Class of committed instruction
system.cpu6.op_class_0::SimdFloatCvt                0                       # Class of committed instruction
system.cpu6.op_class_0::SimdFloatDiv                0                       # Class of committed instruction
system.cpu6.op_class_0::SimdFloatMisc               0                       # Class of committed instruction
system.cpu6.op_class_0::SimdFloatMult               0                       # Class of committed instruction
system.cpu6.op_class_0::SimdFloatMultAcc            0                       # Class of committed instruction
system.cpu6.op_class_0::SimdFloatSqrt               0                       # Class of committed instruction
system.cpu6.op_class_0::SimdReduceAdd               0                       # Class of committed instruction
system.cpu6.op_class_0::SimdReduceAlu               0                       # Class of committed instruction
system.cpu6.op_class_0::SimdReduceCmp               0                       # Class of committed instruction
system.cpu6.op_class_0::SimdFloatReduceAdd            0                       # Class of committed instruction
system.cpu6.op_class_0::SimdFloatReduceCmp            0                       # Class of committed instruction
system.cpu6.op_class_0::SimdAes                     0                       # Class of committed instruction
system.cpu6.op_class_0::SimdAesMix                  0                       # Class of committed instruction
system.cpu6.op_class_0::SimdSha1Hash                0                       # Class of committed instruction
system.cpu6.op_class_0::SimdSha1Hash2               0                       # Class of committed instruction
system.cpu6.op_class_0::SimdSha256Hash              0                       # Class of committed instruction
system.cpu6.op_class_0::SimdSha256Hash2             0                       # Class of committed instruction
system.cpu6.op_class_0::SimdShaSigma2               0                       # Class of committed instruction
system.cpu6.op_class_0::SimdShaSigma3               0                       # Class of committed instruction
system.cpu6.op_class_0::SimdPredAlu                 0                       # Class of committed instruction
system.cpu6.op_class_0::MemRead                     0                       # Class of committed instruction
system.cpu6.op_class_0::MemWrite                    0                       # Class of committed instruction
system.cpu6.op_class_0::FloatMemRead                0                       # Class of committed instruction
system.cpu6.op_class_0::FloatMemWrite               0                       # Class of committed instruction
system.cpu6.op_class_0::IprAccess                   0                       # Class of committed instruction
system.cpu6.op_class_0::InstPrefetch                0                       # Class of committed instruction
system.cpu6.op_class_0::total                       0                       # Class of committed instruction
system.cpu6.tickCycles                              2                       # Number of cycles that the object actually ticked
system.cpu7.branchPred.BTBCorrect                   0                       # Number of correct BTB predictions (this stat may not work properly.
system.cpu7.branchPred.BTBHitPct                  nan                       # BTB Hit Percentage
system.cpu7.branchPred.BTBHits                      0                       # Number of BTB hits
[...]
system.mem_ctrls5.wrQLenPdf::61                    13                       # What write queue length does an incoming req see
system.mem_ctrls5.wrQLenPdf::62                    13                       # What write queue length does an incoming req see
system.mem_ctrls5.wrQLenPdf::63                    13                       # What write queue length does an incoming req see
system.mem_ctrls5.wrQLenPdf::64                    13                       # What write queue length does an incoming req see
system.mem_ctrls5.wrQLenPdf::65                     0                       # What write queue length does an incoming req see
system.mem_ctrls5.wrQLenPdf::66                     0                       # What write queue length does an incoming req see
system.mem_ctrls5.wrQLenPdf::67                     0                       # What write queue length does an incoming req see
system.mem_ctrls5.wrQLenPdf::68                     0                       # What write queue length does an incoming req see
system.mem_ctrls5.wrQLenPdf::69                     0                       # What write queue length does an incoming req see
system.mem_ctrls5.wrQLenPdf::70                     0                       # What write queue length does an incoming req see
system.mem_ctrls5.wrQLenPdf::71                     0                       # What write queue length does an incoming req see
system.mem_ctrls5.wrQLenPdf::72                     0                       # What write queue length does an incoming req see
system.mem_ctrls5.wrQLenPdf::73                     0                       # What write queue length does an incoming req see
system.mem_ctrls5.wrQLenPdf::74                     0                       # What write queue length does an incoming req see
system.mem_ctrls5.wrQLenPdf::75                     0                       # What write queue length does an incoming req see
system.mem_ctrls5.wrQLenPdf::76                     0                       # What write queue length does an incoming req see
system.mem_ctrls5.wrQLenPdf::77                     0                       # What write queue length does an incoming req see
system.mem_ctrls5.wrQLenPdf::78                     0                       # What write queue length does an incoming req see
system.mem_ctrls5.wrQLenPdf::79                     0                       # What write queue length does an incoming req see
system.mem_ctrls5.wrQLenPdf::80                     0                       # What write queue length does an incoming req see
system.mem_ctrls5.wrQLenPdf::81                     0                       # What write queue length does an incoming req see
system.mem_ctrls5.wrQLenPdf::82                     0                       # What write queue length does an incoming req see
system.mem_ctrls5.wrQLenPdf::83                     0                       # What write queue length does an incoming req see
system.mem_ctrls5.wrQLenPdf::84                     0                       # What write queue length does an incoming req see
system.mem_ctrls5.wrQLenPdf::85                     0                       # What write queue length does an incoming req see
system.mem_ctrls5.wrQLenPdf::86                     0                       # What write queue length does an incoming req see
system.mem_ctrls5.wrQLenPdf::87                     0                       # What write queue length does an incoming req see
system.mem_ctrls5.wrQLenPdf::88                     0                       # What write queue length does an incoming req see
system.mem_ctrls5.wrQLenPdf::89                     0                       # What write queue length does an incoming req see
system.mem_ctrls5.wrQLenPdf::90                     0                       # What write queue length does an incoming req see
system.mem_ctrls5.wrQLenPdf::91                     0                       # What write queue length does an incoming req see
system.mem_ctrls5.wrQLenPdf::92                     0                       # What write queue length does an incoming req see
system.mem_ctrls5.wrQLenPdf::93                     0                       # What write queue length does an incoming req see
system.mem_ctrls5.wrQLenPdf::94                     0                       # What write queue length does an incoming req see
system.mem_ctrls5.wrQLenPdf::95                     0                       # What write queue length does an incoming req see
system.mem_ctrls5.wrQLenPdf::96                     0                       # What write queue length does an incoming req see
system.mem_ctrls5.wrQLenPdf::97                     0                       # What write queue length does an incoming req see
system.mem_ctrls5.wrQLenPdf::98                     0                       # What write queue length does an incoming req see
system.mem_ctrls5.wrQLenPdf::99                     0                       # What write queue length does an incoming req see
system.mem_ctrls5.wrQLenPdf::100                    0                       # What write queue length does an incoming req see
system.mem_ctrls5.wrQLenPdf::101                    0                       # What write queue length does an incoming req see
system.mem_ctrls5.wrQLenPdf::102                    0                       # What write queue length does an incoming req see
system.mem_ctrls5.wrQLenPdf::103                    0                       # What write queue length does an incoming req see
system.mem_ctrls5.wrQLenPdf::104                    0                       # What write queue length does an incoming req see
system.mem_ctrls5.wrQLenPdf::105                    0                       # What write queue length does an incoming req see
system.mem_ctrls5.wrQLenPdf::106                    0                       # What write queue length does an incoming req see
system.mem_ctrls5.wrQLenPdf::107                    0                       # What write queue length does an incoming req see
system.mem_ctrls5.wrQLenPdf::108                    0                       # What write queue length does an incoming req see
system.mem_ctrls5.wrQLenPdf::109                    0                       # What write queue length does an incoming req see
system.mem_ctrls5.wrQLenPdf::110                    0                       # What write queue length does an incoming req see
system.mem_ctrls5.wrQLenPdf::111                    0                       # What write queue length does an incoming req see
system.mem_ctrls5.wrQLenPdf::112                    0                       # What write queue length does an incoming req see
system.mem_ctrls5.wrQLenPdf::113                    0                       # What write queue length does an incoming req see
system.mem_ctrls5.wrQLenPdf::114                    0                       # What write queue length does an incoming req see
system.mem_ctrls5.wrQLenPdf::115                    0                       # What write queue length does an incoming req see
system.mem_ctrls5.wrQLenPdf::116                    0                       # What write queue length does an incoming req see
system.mem_ctrls5.wrQLenPdf::117                    0                       # What write queue length does an incoming req see
system.mem_ctrls5.wrQLenPdf::118                    0                       # What write queue length does an incoming req see
system.mem_ctrls5.wrQLenPdf::119                    0                       # What write queue length does an incoming req see
system.mem_ctrls5.wrQLenPdf::120                    0                       # What write queue length does an incoming req see
system.mem_ctrls5.wrQLenPdf::121                    0                       # What write queue length does an incoming req see
system.mem_ctrls5.wrQLenPdf::122                    0                       # What write queue length does an incoming req see
system.mem_ctrls5.wrQLenPdf::123                    0                       # What write queue length does an incoming req see
system.mem_ctrls5.wrQLenPdf::124                    0                       # What write queue length does an incoming req see
system.mem_ctrls5.wrQLenPdf::125                    0                       # What write queue length does an incoming req see
system.mem_ctrls5.wrQLenPdf::126                    0                       # What write queue length does an incoming req see
system.mem_ctrls5.wrQLenPdf::127                    0                       # What write queue length does an incoming req see
system.mem_ctrls5.bytesPerActivate::samples          191                       # Bytes accessed per row activation
system.mem_ctrls5.bytesPerActivate::mean   326.031414                       # Bytes accessed per row activation
system.mem_ctrls5.bytesPerActivate::gmean   243.192331                       # Bytes accessed per row activation
system.mem_ctrls5.bytesPerActivate::stdev   223.653442                       # Bytes accessed per row activation
system.mem_ctrls5.bytesPerActivate::0-127           37     19.37%     19.37% # Bytes accessed per row activation
system.mem_ctrls5.bytesPerActivate::128-255           39     20.42%     39.79% # Bytes accessed per row activation
system.mem_ctrls5.bytesPerActivate::256-383           26     13.61%     53.40% # Bytes accessed per row activation
system.mem_ctrls5.bytesPerActivate::384-511           39     20.42%     73.82% # Bytes accessed per row activation
system.mem_ctrls5.bytesPerActivate::512-639           40     20.94%     94.76% # Bytes accessed per row activation
system.mem_ctrls5.bytesPerActivate::640-767            2      1.05%     95.81% # Bytes accessed per row activation
system.mem_ctrls5.bytesPerActivate::768-895            2      1.05%     96.86% # Bytes accessed per row activation
system.mem_ctrls5.bytesPerActivate::896-1023            2      1.05%     97.91% # Bytes accessed per row activation
system.mem_ctrls5.bytesPerActivate::1024-1151            4      2.09%    100.00% # Bytes accessed per row activation
system.mem_ctrls5.bytesPerActivate::total          191                       # Bytes accessed per row activation
system.mem_ctrls5.rdPerTurnAround::samples           13                       # Reads before turning the bus around for writes
system.mem_ctrls5.rdPerTurnAround::mean     59.769231                       # Reads before turning the bus around for writes
system.mem_ctrls5.rdPerTurnAround::gmean    21.744820                       # Reads before turning the bus around for writes
system.mem_ctrls5.rdPerTurnAround::stdev   155.712959                       # Reads before turning the bus around for writes
system.mem_ctrls5.rdPerTurnAround::0-15             2     15.38%     15.38% # Reads before turning the bus around for writes
system.mem_ctrls5.rdPerTurnAround::16-31           10     76.92%     92.31% # Reads before turning the bus around for writes
system.mem_ctrls5.rdPerTurnAround::576-591            1      7.69%    100.00% # Reads before turning the bus around for writes
system.mem_ctrls5.rdPerTurnAround::total           13                       # Reads before turning the bus around for writes
system.mem_ctrls5.wrPerTurnAround::samples           13                       # Writes before turning the bus around for reads
system.mem_ctrls5.wrPerTurnAround::mean     16.461538                       # Writes before turning the bus around for reads
system.mem_ctrls5.wrPerTurnAround::gmean    16.440855                       # Writes before turning the bus around for reads
system.mem_ctrls5.wrPerTurnAround::stdev     0.877058                       # Writes before turning the bus around for reads
system.mem_ctrls5.wrPerTurnAround::16              10     76.92%     76.92% # Writes before turning the bus around for reads
system.mem_ctrls5.wrPerTurnAround::18               3     23.08%    100.00% # Writes before turning the bus around for reads
system.mem_ctrls5.wrPerTurnAround::total           13                       # Writes before turning the bus around for reads
system.mem_ctrls5.bytesReadDRAM                 50432                       # Total number of bytes read from DRAM
system.mem_ctrls5.bytesReadWrQ                     64                       # Total number of bytes read from write queue
system.mem_ctrls5.bytesWritten                  13696                       # Total number of bytes written to DRAM
system.mem_ctrls5.bytesReadSys                  50496                       # Total read bytes from the system interface side
system.mem_ctrls5.bytesWrittenSys               17536                       # Total written bytes from the system interface side
system.mem_ctrls5.avgRdBW                      111.72                       # Average DRAM read bandwidth in MiByte/s
system.mem_ctrls5.avgWrBW                       30.34                       # Average achieved write bandwidth in MiByte/s
system.mem_ctrls5.avgRdBWSys                   111.87                       # Average system read bandwidth in MiByte/s
system.mem_ctrls5.avgWrBWSys                    38.85                       # Average system write bandwidth in MiByte/s
system.mem_ctrls5.peakBW                     12800.00                       # Theoretical peak bandwidth in MiByte/s
system.mem_ctrls5.busUtil                        1.11                       # Data bus utilization in percentage
system.mem_ctrls5.busUtilRead                    0.87                       # Data bus utilization in percentage for reads
system.mem_ctrls5.busUtilWrite                   0.24                       # Data bus utilization in percentage for writes
system.mem_ctrls5.totGap                    450829500                       # Total gap between requests
system.mem_ctrls5.avgGap                    424110.54                       # Average gap between requests
system.mem_ctrls5.masterReadBytes::.ruby.dir_cntrl5        50432                       # Per-master bytes read from memory
system.mem_ctrls5.masterWriteBytes::.ruby.dir_cntrl5        13696                       # Per-master bytes write to memory
system.mem_ctrls5.masterReadRate::.ruby.dir_cntrl5 111724516.832227125764                       # Per-master bytes read from memory rate (Bytes/sec)
system.mem_ctrls5.masterWriteRate::.ruby.dir_cntrl5 30341429.698092140257                       # Per-master bytes write to memory rate (Bytes/sec)
system.mem_ctrls5.masterReadAccesses::.ruby.dir_cntrl5          789                       # Per-master read serviced memory accesses
system.mem_ctrls5.masterWriteAccesses::.ruby.dir_cntrl5          274                       # Per-master write serviced memory accesses
system.mem_ctrls5.masterReadTotalLat::.ruby.dir_cntrl5     20000742                       # Per-master read total memory access latency
system.mem_ctrls5.masterWriteTotalLat::.ruby.dir_cntrl5   7713885500                       # Per-master write total memory access latency
system.mem_ctrls5.masterReadAvgLat::.ruby.dir_cntrl5     25349.48                       # Per-master read average memory access latency
system.mem_ctrls5.masterWriteAvgLat::.ruby.dir_cntrl5  28152866.79                       # Per-master write average memory access latency
system.mem_ctrls5.pageHitRate                   75.52                       # Row buffer hit rate, read and write combined
system.mem_ctrls5.rank1.actEnergy              592620                       # Energy for activate commands per rank (pJ)
system.mem_ctrls5.rank1.preEnergy              299805                       # Energy for precharge commands per rank (pJ)
system.mem_ctrls5.rank1.readEnergy            2556120                       # Energy for read commands per rank (pJ)
system.mem_ctrls5.rank1.writeEnergy            448920                       # Energy for write commands per rank (pJ)
system.mem_ctrls5.rank1.refreshEnergy    35034480.000000                       # Energy for refresh commands per rank (pJ)
system.mem_ctrls5.rank1.actBackEnergy       150344340                       # Energy for active background per rank (pJ)
system.mem_ctrls5.rank1.preBackEnergy        46730400                       # Energy for precharge background per rank (pJ)
system.mem_ctrls5.rank1.actPowerDownEnergy            0                       # Energy for active power-down per rank (pJ)
system.mem_ctrls5.rank1.prePowerDownEnergy            0                       # Energy for precharge power-down per rank (pJ)
system.mem_ctrls5.rank1.selfRefreshEnergy            0                       # Energy for self refresh per rank (pJ)
system.mem_ctrls5.rank1.totalEnergy         236006685                       # Total energy per rank (pJ)
system.mem_ctrls5.rank1.averagePower       522.837342                       # Core power per rank (mW)
system.mem_ctrls5.rank1.totalIdleTime               0                       # Total Idle time Per DRAM Rank
system.mem_ctrls5.rank1.memoryStateTime::IDLE    120219043                       # Time in different power states
system.mem_ctrls5.rank1.memoryStateTime::REF     14820000                       # Time in different power states
system.mem_ctrls5.rank1.memoryStateTime::SREF            0                       # Time in different power states
system.mem_ctrls5.rank1.memoryStateTime::PRE_PDN            0                       # Time in different power states
system.mem_ctrls5.rank1.memoryStateTime::ACT    316356957                       # Time in different power states
system.mem_ctrls5.rank1.memoryStateTime::ACT_PDN            0                       # Time in different power states
system.mem_ctrls5.rank0.actEnergy              835380                       # Energy for activate commands per rank (pJ)
system.mem_ctrls5.rank0.preEnergy              425040                       # Energy for precharge commands per rank (pJ)
system.mem_ctrls5.rank0.readEnergy            3070200                       # Energy for read commands per rank (pJ)
system.mem_ctrls5.rank0.writeEnergy            668160                       # Energy for write commands per rank (pJ)
system.mem_ctrls5.rank0.refreshEnergy    35034480.000000                       # Energy for refresh commands per rank (pJ)
system.mem_ctrls5.rank0.actBackEnergy       180644400                       # Energy for active background per rank (pJ)
system.mem_ctrls5.rank0.preBackEnergy        21214560                       # Energy for precharge background per rank (pJ)
system.mem_ctrls5.rank0.actPowerDownEnergy            0                       # Energy for active power-down per rank (pJ)
system.mem_ctrls5.rank0.prePowerDownEnergy            0                       # Energy for precharge power-down per rank (pJ)
system.mem_ctrls5.rank0.selfRefreshEnergy            0                       # Energy for self refresh per rank (pJ)
system.mem_ctrls5.rank0.totalEnergy         241892220                       # Total energy per rank (pJ)
system.mem_ctrls5.rank0.averagePower       535.875861                       # Core power per rank (mW)
system.mem_ctrls5.rank0.totalIdleTime               0                       # Total Idle time Per DRAM Rank
system.mem_ctrls5.rank0.memoryStateTime::IDLE     53652805                       # Time in different power states
system.mem_ctrls5.rank0.memoryStateTime::REF     14820000                       # Time in different power states
system.mem_ctrls5.rank0.memoryStateTime::SREF            0                       # Time in different power states
system.mem_ctrls5.rank0.memoryStateTime::PRE_PDN            0                       # Time in different power states
system.mem_ctrls5.rank0.memoryStateTime::ACT    382923195                       # Time in different power states
system.mem_ctrls5.rank0.memoryStateTime::ACT_PDN            0                       # Time in different power states
system.mem_ctrls5.power_state.pwrStateResidencyTicks::UNDEFINED    451396000                       # Cumulative time (in ticks) in various power states
system.cpu_voltage_domain.voltage                   1                       # Voltage in Volts

---------- End Simulation Statistics   ----------
